<?xml version='1.0' encoding='UTF-8'?>
<configuration xmlns:xsi="http://www.w3.org/2001/XMLSchema-instance" xsi:noNamespaceSchemaLocation="http://sumo.dlr.de/xsd/sumoConfiguration.xsd">
  <input>
    <net-file value="sugiyama_20190927-0022461569558166.1490562.net.xml"/>
    <route-files value="sugiyama_20190927-0022461569558166.1490562.rou.xml"/>
    <additional-files value="sugiyama_20190927-0022461569558166.1490562.add.xml"/>
    <gui-settings-file value="sugiyama_20190927-0022461569558166.1490562.gui.cfg"/>
  </input>
  <time>
    <begin value="0"/>
  </time>
</configuration>
