<?xml version='1.0' encoding='UTF-8'?>
<routes xmlns:xsi="http://www.w3.org/2001/XMLSchema-instance" xsi:noNamespaceSchemaLocation="http://sumo.dlr.de/xsd/routes_file.xsd">
  <route edges="top left bottom right" id="routetop_0"/>
  <route edges="left bottom right top" id="routeleft_0"/>
  <route edges="bottom right top left" id="routebottom_0"/>
  <route edges="right top left bottom" id="routeright_0"/>
</routes>
